dss/import/hidra-caso1-modificado/Switch_caso1_Med2024_30.dss
New "Line.Fus_300162" phases=3 bus1=3819265_p.1.2.3 bus2=3819265_p_1.1.2.3 length=0.001 r1=0.0001 x1=0 r0=0.0001 x0=0 C1=0 C0=0 Switch=y 
New "Line.Fus_300165" phases=3 bus1=3810140_p.1.2.3 bus2=3810140_p_1.1.2.3 length=0.001 r1=0.0001 x1=0 r0=0.0001 x0=0 C1=0 C0=0 Switch=y 
New "Line.Fus_300166" phases=3 bus1=3810149_p.1.2.3 bus2=3810149_p_1.1.2.3 length=0.001 r1=0.0001 x1=0 r0=0.0001 x0=0 C1=0 C0=0 Switch=y 
New "Line.Fus_300167" phases=3 bus1=3838518_p.1.2.3 bus2=3838518_p_1.1.2.3 length=0.001 r1=0.0001 x1=0 r0=0.0001 x0=0 C1=0 C0=0 Switch=y 
New "Line.Fus_300168" phases=3 bus1=3747428_p.1.2.3 bus2=3747428_p_1.1.2.3 length=0.001 r1=0.0001 x1=0 r0=0.0001 x0=0 C1=0 C0=0 Switch=y 
New "Line.Fus_300170" phases=3 bus1=3806703_p.1.2.3 bus2=3806703_p_1.1.2.3 length=0.001 r1=0.0001 x1=0 r0=0.0001 x0=0 C1=0 C0=0 Switch=y 
New "Line.Fus_300171" phases=3 bus1=3806706_p.1.2.3 bus2=3806706_p_1.1.2.3 length=0.001 r1=0.0001 x1=0 r0=0.0001 x0=0 C1=0 C0=0 Switch=y 
New "Line.Fus_300180" phases=3 bus1=3812590_p.1.2.3 bus2=3812590_p_1.1.2.3 length=0.001 r1=0.0001 x1=0 r0=0.0001 x0=0 C1=0 C0=0 Switch=y 
New "Line.Fus_300181" phases=3 bus1=3806721_p.1.2.3 bus2=3806721_p_1.1.2.3 length=0.001 r1=0.0001 x1=0 r0=0.0001 x0=0 C1=0 C0=0 Switch=y 
New "Line.Fus_300183" phases=3 bus1=3823263_p.1.2.3 bus2=3823263_p_1.1.2.3 length=0.001 r1=0.0001 x1=0 r0=0.0001 x0=0 C1=0 C0=0 Switch=y 
New "Line.Fus_300185" phases=3 bus1=3808184_p.1.2.3 bus2=3808184_p_1.1.2.3 length=0.001 r1=0.0001 x1=0 r0=0.0001 x0=0 C1=0 C0=0 Switch=y 
New "Line.Fus_300188" phases=3 bus1=4002335_p.1.2.3 bus2=4002335_p_1.1.2.3 length=0.001 r1=0.0001 x1=0 r0=0.0001 x0=0 C1=0 C0=0 Switch=y 
New "Line.Fus_300189" phases=3 bus1=14070073_p.1.2.3 bus2=14070073_p_1.1.2.3 length=0.001 r1=0.0001 x1=0 r0=0.0001 x0=0 C1=0 C0=0 Switch=y 
New "Line.Fus_300190" phases=3 bus1=4002336_p.1.2.3 bus2=4002336_p_1.1.2.3 length=0.001 r1=0.0001 x1=0 r0=0.0001 x0=0 C1=0 C0=0 Switch=y 
New "Line.Fus_300191" phases=3 bus1=3806768_p.1.2.3 bus2=3806768_p_1.1.2.3 length=0.001 r1=0.0001 x1=0 r0=0.0001 x0=0 C1=0 C0=0 Switch=y 
New "Line.Fus_300192" phases=3 bus1=3806374_p.1.2.3 bus2=3806374_p_1.1.2.3 length=0.001 r1=0.0001 x1=0 r0=0.0001 x0=0 C1=0 C0=0 Switch=y 
New "Line.Fus_300193" phases=3 bus1=3817748_p.1.2.3 bus2=3817748_p_1.1.2.3 length=0.001 r1=0.0001 x1=0 r0=0.0001 x0=0 C1=0 C0=0 Switch=y 
New "Line.Fus_300194" phases=3 bus1=3806239_p.1.2.3 bus2=3806239_p_1.1.2.3 length=0.001 r1=0.0001 x1=0 r0=0.0001 x0=0 C1=0 C0=0 Switch=y 
New "Line.Fus_300200" phases=3 bus1=3822095_p.1.2.3 bus2=3822095_p_1.1.2.3 length=0.001 r1=0.0001 x1=0 r0=0.0001 x0=0 C1=0 C0=0 Switch=y 
New "Line.Fus_300204" phases=3 bus1=3806259_p.1.2.3 bus2=3806259_p_1.1.2.3 length=0.001 r1=0.0001 x1=0 r0=0.0001 x0=0 C1=0 C0=0 Switch=y 
New "Line.Fus_300215" phases=3 bus1=3808226_p.1.2.3 bus2=3808226_p_1.1.2.3 length=0.001 r1=0.0001 x1=0 r0=0.0001 x0=0 C1=0 C0=0 Switch=y 
New "Line.Fus_300217" phases=3 bus1=3832430_p.1.2.3 bus2=3832430_p_1.1.2.3 length=0.001 r1=0.0001 x1=0 r0=0.0001 x0=0 C1=0 C0=0 Switch=y 
New "Line.Fus_300220" phases=3 bus1=3837814_p.1.2.3 bus2=3837814_p_1.1.2.3 length=0.001 r1=0.0001 x1=0 r0=0.0001 x0=0 C1=0 C0=0 Switch=y 
New "Line.Fus_300221" phases=3 bus1=3812828_p.1.2.3 bus2=3812828_p_1.1.2.3 length=0.001 r1=0.0001 x1=0 r0=0.0001 x0=0 C1=0 C0=0 Switch=y 
New "Line.Fus_300225" phases=3 bus1=3806227_p.1.2.3 bus2=3806227_p_1.1.2.3 length=0.001 r1=0.0001 x1=0 r0=0.0001 x0=0 C1=0 C0=0 Switch=y 
New "Line.Fus_300226" phases=3 bus1=3833751_p.1.2.3 bus2=3833751_p_1.1.2.3 length=0.001 r1=0.0001 x1=0 r0=0.0001 x0=0 C1=0 C0=0 Switch=y 
New "Line.Fus_300227" phases=3 bus1=4002387_p.1.2.3 bus2=4002387_p_1.1.2.3 length=0.001 r1=0.0001 x1=0 r0=0.0001 x0=0 C1=0 C0=0 Switch=y 
New "Line.Fus_300231" phases=3 bus1=3807864_p.1.2.3 bus2=3807864_p_1.1.2.3 length=0.001 r1=0.0001 x1=0 r0=0.0001 x0=0 C1=0 C0=0 Switch=y 
New "Line.Fus_300244" phases=3 bus1=3823306_p.1.2.3 bus2=3823306_p_1.1.2.3 length=0.001 r1=0.0001 x1=0 r0=0.0001 x0=0 C1=0 C0=0 Switch=y 
New "Line.Fus_300245" phases=3 bus1=4002388_p.1.2.3 bus2=4002388_p_1.1.2.3 length=0.001 r1=0.0001 x1=0 r0=0.0001 x0=0 C1=0 C0=0 Switch=y 
New "Line.Fus_300246" phases=3 bus1=3808444_p.1.2.3 bus2=3808444_p_1.1.2.3 length=0.001 r1=0.0001 x1=0 r0=0.0001 x0=0 C1=0 C0=0 Switch=y 
New "Line.Fus_300247" phases=3 bus1=3808199_p.1.2.3 bus2=3808199_p_1.1.2.3 length=0.001 r1=0.0001 x1=0 r0=0.0001 x0=0 C1=0 C0=0 Switch=y 
New "Line.Fus_301698" phases=3 bus1=3812380_p.1.2.3 bus2=3812380_p_1.1.2.3 length=0.001 r1=0.0001 x1=0 r0=0.0001 x0=0 C1=0 C0=0 Switch=y 
New "Line.Fus_301733" phases=3 bus1=3747858_p.1.2.3 bus2=3747858_p_1.1.2.3 length=0.001 r1=0.0001 x1=0 r0=0.0001 x0=0 C1=0 C0=0 Switch=y 
New "Line.Fus_301774" phases=3 bus1=3832429_p.1.2.3 bus2=3832429_p_1.1.2.3 length=0.001 r1=0.0001 x1=0 r0=0.0001 x0=0 C1=0 C0=0 Switch=y 
New "Line.Fus_301775" phases=3 bus1=3813328_p.1.2.3 bus2=3813328_p_1.1.2.3 length=0.001 r1=0.0001 x1=0 r0=0.0001 x0=0 C1=0 C0=0 Switch=y 
New "Line.Fus_301776" phases=3 bus1=3813276_p.1.2.3 bus2=3813276_p_1.1.2.3 length=0.001 r1=0.0001 x1=0 r0=0.0001 x0=0 C1=0 C0=0 Switch=y 
New "Line.Fus_301777" phases=3 bus1=3810166_p.1.2.3 bus2=3810166_p_1.1.2.3 length=0.001 r1=0.0001 x1=0 r0=0.0001 x0=0 C1=0 C0=0 Switch=y 
New "Line.Fus_301778" phases=3 bus1=3813283_p.1.2.3 bus2=3813283_p_1.1.2.3 length=0.001 r1=0.0001 x1=0 r0=0.0001 x0=0 C1=0 C0=0 Switch=y 
New "Line.Fus_301858" phases=3 bus1=3829947_p.1.2.3 bus2=3829947_p_1.1.2.3 length=0.001 r1=0.0001 x1=0 r0=0.0001 x0=0 C1=0 C0=0 Switch=y 
New "Line.Fus_301881" phases=3 bus1=3844387_p.1.2.3 bus2=3844387_p_1.1.2.3 length=0.001 r1=0.0001 x1=0 r0=0.0001 x0=0 C1=0 C0=0 Switch=y 
New "Line.Fus_301908" phases=3 bus1=4002471_p.1.2.3 bus2=4002471_p_1.1.2.3 length=0.001 r1=0.0001 x1=0 r0=0.0001 x0=0 C1=0 C0=0 Switch=y 
New "Line.Fus_301938" phases=3 bus1=3747406_p.1.2.3 bus2=3747406_p_1.1.2.3 length=0.001 r1=0.0001 x1=0 r0=0.0001 x0=0 C1=0 C0=0 Switch=y 
New "Line.Fus_302313" phases=3 bus1=3817188_p.1.2.3 bus2=3817188_p_1.1.2.3 length=0.001 r1=0.0001 x1=0 r0=0.0001 x0=0 C1=0 C0=0 Switch=y 
New "Line.Fus_302318" phases=3 bus1=3832423_p.1.2.3 bus2=3832423_p_1.1.2.3 length=0.001 r1=0.0001 x1=0 r0=0.0001 x0=0 C1=0 C0=0 Switch=y 
New "Line.Fus_302407" phases=3 bus1=3817921_p.1.2.3 bus2=3817921_p_1.1.2.3 length=0.001 r1=0.0001 x1=0 r0=0.0001 x0=0 C1=0 C0=0 Switch=y 
New "Line.Fus_302434" phases=3 bus1=4002623_p.1.2.3 bus2=4002623_p_1.1.2.3 length=0.001 r1=0.0001 x1=0 r0=0.0001 x0=0 C1=0 C0=0 Switch=y 
New "Line.Fus_302565" phases=3 bus1=13602024_p.1.2.3 bus2=13602024_p_1.1.2.3 length=0.001 r1=0.0001 x1=0 r0=0.0001 x0=0 C1=0 C0=0 Switch=y 
New "Line.Fus_302566" phases=3 bus1=13981349_p.1.2.3 bus2=13981349_p_1.1.2.3 length=0.001 r1=0.0001 x1=0 r0=0.0001 x0=0 C1=0 C0=0 Switch=y 
New "Line.Fus_302567" phases=3 bus1=3819054_p.1.2.3 bus2=3819054_p_1.1.2.3 length=0.001 r1=0.0001 x1=0 r0=0.0001 x0=0 C1=0 C0=0 Switch=y 
New "Line.Fus_302568" phases=3 bus1=3819053_p.1.2.3 bus2=3819053_p_1.1.2.3 length=0.001 r1=0.0001 x1=0 r0=0.0001 x0=0 C1=0 C0=0 Switch=y 
New "Line.Fus_302569" phases=3 bus1=3819057_p.1.2.3 bus2=3819057_p_1.1.2.3 length=0.001 r1=0.0001 x1=0 r0=0.0001 x0=0 C1=0 C0=0 Switch=y 
New "Line.Fus_302570" phases=3 bus1=3832428_p.1.2.3 bus2=3832428_p_1.1.2.3 length=0.001 r1=0.0001 x1=0 r0=0.0001 x0=0 C1=0 C0=0 Switch=y 
New "Line.Fus_302579" phases=3 bus1=13981284_p.1.2.3 bus2=13981284_p_1.1.2.3 length=0.001 r1=0.0001 x1=0 r0=0.0001 x0=0 C1=0 C0=0 Switch=y 
New "Line.Fus_302581" phases=3 bus1=3819161_p.1.2.3 bus2=3819161_p_1.1.2.3 length=0.001 r1=0.0001 x1=0 r0=0.0001 x0=0 C1=0 C0=0 Switch=y 
New "Line.Fus_302631" phases=3 bus1=3819554_p.1.2.3 bus2=3819554_p_1.1.2.3 length=0.001 r1=0.0001 x1=0 r0=0.0001 x0=0 C1=0 C0=0 Switch=y 
New "Line.Fus_302647" phases=3 bus1=3819652_p.1.2.3 bus2=3819652_p_1.1.2.3 length=0.001 r1=0.0001 x1=0 r0=0.0001 x0=0 C1=0 C0=0 Switch=y 
New "Line.Fus_302676" phases=3 bus1=3819909_p.1.2.3 bus2=3819909_p_1.1.2.3 length=0.001 r1=0.0001 x1=0 r0=0.0001 x0=0 C1=0 C0=0 Switch=y 
New "Line.Fus_302684" phases=3 bus1=3819925_p.1.2.3 bus2=3819925_p_1.1.2.3 length=0.001 r1=0.0001 x1=0 r0=0.0001 x0=0 C1=0 C0=0 Switch=y 
New "Line.Fus_302866" phases=3 bus1=3821714_p.1.2.3 bus2=3821714_p_1.1.2.3 length=0.001 r1=0.0001 x1=0 r0=0.0001 x0=0 C1=0 C0=0 Switch=y 
New "Line.Fus_302871" phases=3 bus1=3821745_p.1.2.3 bus2=3821745_p_1.1.2.3 length=0.001 r1=0.0001 x1=0 r0=0.0001 x0=0 C1=0 C0=0 Switch=y 
New "Line.Fus_302943" phases=3 bus1=3822157_p.1.2.3 bus2=3822157_p_1.1.2.3 length=0.001 r1=0.0001 x1=0 r0=0.0001 x0=0 C1=0 C0=0 Switch=y 
New "Line.Fus_303004" phases=3 bus1=3843802_p.1.2.3 bus2=3843802_p_1.1.2.3 length=0.001 r1=0.0001 x1=0 r0=0.0001 x0=0 C1=0 C0=0 Switch=y 
New "Line.Fus_303005" phases=3 bus1=3822777_p.1.2.3 bus2=3822777_p_1.1.2.3 length=0.001 r1=0.0001 x1=0 r0=0.0001 x0=0 C1=0 C0=0 Switch=y 
New "Line.Fus_303009" phases=3 bus1=4002761_p.1.2.3 bus2=4002761_p_1.1.2.3 length=0.001 r1=0.0001 x1=0 r0=0.0001 x0=0 C1=0 C0=0 Switch=y 
New "Line.Fus_303079" phases=3 bus1=3823305_p.1.2.3 bus2=3823305_p_1.1.2.3 length=0.001 r1=0.0001 x1=0 r0=0.0001 x0=0 C1=0 C0=0 Switch=y 
New "Line.Fus_303083" phases=3 bus1=3823327_p.1.2.3 bus2=3823327_p_1.1.2.3 length=0.001 r1=0.0001 x1=0 r0=0.0001 x0=0 C1=0 C0=0 Switch=y 
New "Line.Fus_303092" phases=3 bus1=3823362_p.1.2.3 bus2=3823362_p_1.1.2.3 length=0.001 r1=0.0001 x1=0 r0=0.0001 x0=0 C1=0 C0=0 Switch=y 
New "Line.Fus_303131" phases=3 bus1=3823641_p.1.2.3 bus2=3823641_p_1.1.2.3 length=0.001 r1=0.0001 x1=0 r0=0.0001 x0=0 C1=0 C0=0 Switch=y 
New "Line.Fus_303193" phases=3 bus1=3824296_p.1.2.3 bus2=3824296_p_1.1.2.3 length=0.001 r1=0.0001 x1=0 r0=0.0001 x0=0 C1=0 C0=0 Switch=y 
New "Line.Fus_303316" phases=3 bus1=3825272_p.1.2.3 bus2=3825272_p_1.1.2.3 length=0.001 r1=0.0001 x1=0 r0=0.0001 x0=0 C1=0 C0=0 Switch=y 
New "Line.Fus_303731" phases=3 bus1=3843796_p.1.2.3 bus2=3843796_p_1.1.2.3 length=0.001 r1=0.0001 x1=0 r0=0.0001 x0=0 C1=0 C0=0 Switch=y 
New "Line.Fus_303919" phases=3 bus1=3829951_p.1.2.3 bus2=3829951_p_1.1.2.3 length=0.001 r1=0.0001 x1=0 r0=0.0001 x0=0 C1=0 C0=0 Switch=y 
New "Line.Fus_304007" phases=3 bus1=3830690_p.1.2.3 bus2=3830690_p_1.1.2.3 length=0.001 r1=0.0001 x1=0 r0=0.0001 x0=0 C1=0 C0=0 Switch=y 
New "Line.Fus_304122" phases=3 bus1=3843811_p.1.2.3 bus2=3843811_p_1.1.2.3 length=0.001 r1=0.0001 x1=0 r0=0.0001 x0=0 C1=0 C0=0 Switch=y 
New "Line.Fus_304123" phases=3 bus1=3831406_p.1.2.3 bus2=3831406_p_1.1.2.3 length=0.001 r1=0.0001 x1=0 r0=0.0001 x0=0 C1=0 C0=0 Switch=y 
New "Line.Fus_304124" phases=3 bus1=3831409_p.1.2.3 bus2=3831409_p_1.1.2.3 length=0.001 r1=0.0001 x1=0 r0=0.0001 x0=0 C1=0 C0=0 Switch=y 
New "Line.Fus_304264" phases=3 bus1=3832353_p.1.2.3 bus2=3832353_p_1.1.2.3 length=0.001 r1=0.0001 x1=0 r0=0.0001 x0=0 C1=0 C0=0 Switch=y 
New "Line.Fus_304431" phases=3 bus1=3833742_p.1.2.3 bus2=3833742_p_1.1.2.3 length=0.001 r1=0.0001 x1=0 r0=0.0001 x0=0 C1=0 C0=0 Switch=y 
New "Line.Fus_304433" phases=3 bus1=3833749_p.1.2.3 bus2=3833749_p_1.1.2.3 length=0.001 r1=0.0001 x1=0 r0=0.0001 x0=0 C1=0 C0=0 Switch=y 
New "Line.Fus_304434" phases=3 bus1=3833769_p.1.2.3 bus2=3833769_p_1.1.2.3 length=0.001 r1=0.0001 x1=0 r0=0.0001 x0=0 C1=0 C0=0 Switch=y 
New "Line.Fus_304451" phases=3 bus1=3833877_p.1.2.3 bus2=3833877_p_1.1.2.3 length=0.001 r1=0.0001 x1=0 r0=0.0001 x0=0 C1=0 C0=0 Switch=y 
New "Line.Fus_304491" phases=3 bus1=3834146_p.1.2.3 bus2=3834146_p_1.1.2.3 length=0.001 r1=0.0001 x1=0 r0=0.0001 x0=0 C1=0 C0=0 Switch=y 
New "Line.Fus_304492" phases=3 bus1=3834151_p.1.2.3 bus2=3834151_p_1.1.2.3 length=0.001 r1=0.0001 x1=0 r0=0.0001 x0=0 C1=0 C0=0 Switch=y 
New "Line.Fus_304554" phases=3 bus1=3834761_p.1.2.3 bus2=3834761_p_1.1.2.3 length=0.001 r1=0.0001 x1=0 r0=0.0001 x0=0 C1=0 C0=0 Switch=y 
New "Line.Fus_304601" phases=3 bus1=3835138_p.1.2.3 bus2=3835138_p_1.1.2.3 length=0.001 r1=0.0001 x1=0 r0=0.0001 x0=0 C1=0 C0=0 Switch=y 
New "Line.Fus_304632" phases=3 bus1=3835272_p.1.2.3 bus2=3835272_p_1.1.2.3 length=0.001 r1=0.0001 x1=0 r0=0.0001 x0=0 C1=0 C0=0 Switch=y 
New "Line.Fus_304766" phases=3 bus1=3836499_p.1.2.3 bus2=3836499_p_1.1.2.3 length=0.001 r1=0.0001 x1=0 r0=0.0001 x0=0 C1=0 C0=0 Switch=y 
New "Line.Fus_304815" phases=3 bus1=3836995_p.1.2.3 bus2=3836995_p_1.1.2.3 length=0.001 r1=0.0001 x1=0 r0=0.0001 x0=0 C1=0 C0=0 Switch=y 
New "Line.Fus_304884" phases=3 bus1=3837609_p.1.2.3 bus2=3837609_p_1.1.2.3 length=0.001 r1=0.0001 x1=0 r0=0.0001 x0=0 C1=0 C0=0 Switch=y 
New "Line.Fus_304908" phases=3 bus1=3837992_p.1.2.3 bus2=3837992_p_1.1.2.3 length=0.001 r1=0.0001 x1=0 r0=0.0001 x0=0 C1=0 C0=0 Switch=y 
New "Line.Fus_304909" phases=3 bus1=3837995_p.1.2.3 bus2=3837995_p_1.1.2.3 length=0.001 r1=0.0001 x1=0 r0=0.0001 x0=0 C1=0 C0=0 Switch=y 
New "Line.Fus_305208" phases=3 bus1=3998784_p.1.2.3 bus2=3998784_p_1.1.2.3 length=0.001 r1=0.0001 x1=0 r0=0.0001 x0=0 C1=0 C0=0 Switch=y 
New "Line.Fus_305246" phases=3 bus1=3999222_p.1.2.3 bus2=3999222_p_1.1.2.3 length=0.001 r1=0.0001 x1=0 r0=0.0001 x0=0 C1=0 C0=0 Switch=y 
New "Line.Fus_314027" phases=3 bus1=3995136_p.1.2.3 bus2=3995136_p_1.1.2.3 length=0.001 r1=0.0001 x1=0 r0=0.0001 x0=0 C1=0 C0=0 Switch=y 
New "Line.Fus_314088" phases=3 bus1=3997578_p.1.2.3 bus2=3997578_p_1.1.2.3 length=0.001 r1=0.0001 x1=0 r0=0.0001 x0=0 C1=0 C0=0 Switch=y 
New "Line.Fus_314200" phases=3 bus1=14016095_p.1.2.3 bus2=14016095_p_1.1.2.3 length=0.001 r1=0.0001 x1=0 r0=0.0001 x0=0 C1=0 C0=0 Switch=y 
New "Line.Fus_314201" phases=3 bus1=14016261_p.1.2.3 bus2=14016261_p_1.1.2.3 length=0.001 r1=0.0001 x1=0 r0=0.0001 x0=0 C1=0 C0=0 Switch=y 
New "Line.Fus_314320" phases=3 bus1=16370837_p.1.2.3 bus2=16370837_p_1.1.2.3 length=0.001 r1=0.0001 x1=0 r0=0.0001 x0=0 C1=0 C0=0 Switch=y 
New "Line.Fus_314323" phases=3 bus1=3832397_p.1.2.3 bus2=3832397_p_1.1.2.3 length=0.001 r1=0.0001 x1=0 r0=0.0001 x0=0 C1=0 C0=0 Switch=y 
New "Line.Fus_323119" phases=3 bus1=3806352_p.1.2.3 bus2=3806352_p_1.1.2.3 length=0.001 r1=0.0001 x1=0 r0=0.0001 x0=0 C1=0 C0=0 Switch=y 
New "Line.Fus_323409" phases=3 bus1=3805129_p.1.2.3 bus2=3805129_p_1.1.2.3 length=0.001 r1=0.0001 x1=0 r0=0.0001 x0=0 C1=0 C0=0 Switch=y 
New "Line.Fus_323482" phases=3 bus1=3805226_p.1.2.3 bus2=3805226_p_1.1.2.3 length=0.001 r1=0.0001 x1=0 r0=0.0001 x0=0 C1=0 C0=0 Switch=y 
New "Line.Fus_323501" phases=3 bus1=3819344_p.1.2.3 bus2=3819344_p_1.1.2.3 length=0.001 r1=0.0001 x1=0 r0=0.0001 x0=0 C1=0 C0=0 Switch=y 
New "Line.Fus_327897" phases=3 bus1=3827627_p.1.2.3 bus2=3827627_p_1.1.2.3 length=0.001 r1=0.0001 x1=0 r0=0.0001 x0=0 C1=0 C0=0 Switch=y 
